!-Generator IDFEditor 1.51
!-Option SortedOrder

!-NOTE: All comments with '!-' are ignored by the IDFEditor and are generated automatically.
!-      Use '!' comments if they need to be retained when using the IDFEditor.


!-   ===========  ALL OBJECTS IN CLASS: VERSION ===========

Version,
    9.5;                     !- Version Identifier


!-   ===========  ALL OBJECTS IN CLASS: SIMULATIONCONTROL ===========

SimulationControl,
    No,                      !- Do Zone Sizing Calculation
    No,                      !- Do System Sizing Calculation
    No,                      !- Do Plant Sizing Calculation
    No,                      !- Run Simulation for Sizing Periods
    Yes,                     !- Run Simulation for Weather File Run Periods
    No,                      !- Do HVAC Sizing Simulation for Sizing Periods
    1;                       !- Maximum Number of HVAC Sizing Simulation Passes


!-   ===========  ALL OBJECTS IN CLASS: BUILDING ===========

Building,
    Building 1,              !- Name
    ,                        !- North Axis {deg}
    ,                        !- Terrain
    ,                        !- Loads Convergence Tolerance Value {W}
    ,                        !- Temperature Convergence Tolerance Value {deltaC}
    ,                        !- Solar Distribution
    ,                        !- Maximum Number of Warmup Days
    ;                        !- Minimum Number of Warmup Days


!-   ===========  ALL OBJECTS IN CLASS: SHADOWCALCULATION ===========

ShadowCalculation,
    PolygonClipping,         !- Shading Calculation Method
    Periodic,                !- Shading Calculation Update Frequency Method
    20,                      !- Shading Calculation Update Frequency
    15000,                   !- Maximum Figures in Shadow Overlap Calculations
    SutherlandHodgman;       !- Polygon Clipping Algorithm


!-   ===========  ALL OBJECTS IN CLASS: HEATBALANCEALGORITHM ===========

HeatBalanceAlgorithm,
    ConductionTransferFunction,  !- Algorithm
    200;                     !- Surface Temperature Upper Limit {C}


!-   ===========  ALL OBJECTS IN CLASS: TIMESTEP ===========

Timestep,
    6;                       !- Number of Timesteps per Hour


!-   ===========  ALL OBJECTS IN CLASS: SITE:LOCATION ===========

Site:Location,
    Temixco,                 !- Name
    18.85,                   !- Latitude {deg}
    -99.14,                  !- Longitude {deg}
    -6,                      !- Time Zone {hr}
    1280;                    !- Elevation {m}


!-   ===========  ALL OBJECTS IN CLASS: RUNPERIOD ===========

RunPeriod,
    Run Period 1,            !- Name
    5,                       !- Begin Month
    3,                       !- Begin Day of Month
    2019,                    !- Begin Year
    6,                       !- End Month
    24,                      !- End Day of Month
    2019,                    !- End Year
    Friday,                  !- Day of Week for Start Day
    No,                      !- Use Weather File Holidays and Special Days
    No,                      !- Use Weather File Daylight Saving Period
    No,                      !- Apply Weekend Holiday Rule
    Yes,                     !- Use Weather File Rain Indicators
    Yes;                     !- Use Weather File Snow Indicators


!-   ===========  ALL OBJECTS IN CLASS: SITE:GROUNDTEMPERATURE:BUILDINGSURFACE ===========

Site:GroundTemperature:BuildingSurface,
    21,                      !- January Ground Temperature {C}
    21,                      !- February Ground Temperature {C}
    21,                      !- March Ground Temperature {C}
    21,                      !- April Ground Temperature {C}
    21,                      !- May Ground Temperature {C}
    21,                      !- June Ground Temperature {C}
    21,                      !- July Ground Temperature {C}
    21,                      !- August Ground Temperature {C}
    21,                      !- September Ground Temperature {C}
    21,                      !- October Ground Temperature {C}
    21,                      !- November Ground Temperature {C}
    21;                      !- December Ground Temperature {C}


!-   ===========  ALL OBJECTS IN CLASS: SCHEDULETYPELIMITS ===========

ScheduleTypeLimits,
    Mac,                     !- Name
    ,                        !- Lower Limit Value
    ,                        !- Upper Limit Value
    Discrete,                !- Numeric Type
    Percent;                 !- Unit Type

ScheduleTypeLimits,
    HP,                      !- Name
    ,                        !- Lower Limit Value
    ,                        !- Upper Limit Value
    Discrete,                !- Numeric Type
    Percent;                 !- Unit Type

ScheduleTypeLimits,
    MonitorDell,             !- Name
    ,                        !- Lower Limit Value
    ,                        !- Upper Limit Value
    Discrete,                !- Numeric Type
    Percent;                 !- Unit Type

ScheduleTypeLimits,
    Fuente,                  !- Name
    ,                        !- Lower Limit Value
    ,                        !- Upper Limit Value
    Discrete,                !- Numeric Type
    Percent;                 !- Unit Type

ScheduleTypeLimits,
    Agilent,                 !- Name
    ,                        !- Lower Limit Value
    ,                        !- Upper Limit Value
    Discrete,                !- Numeric Type
    Percent;                 !- Unit Type

ScheduleTypeLimits,
    Regulador,               !- Name
    ,                        !- Lower Limit Value
    ,                        !- Upper Limit Value
    Discrete,                !- Numeric Type
    Percent;                 !- Unit Type

ScheduleTypeLimits,
    Telefono,                !- Name
    ,                        !- Lower Limit Value
    ,                        !- Upper Limit Value
    Discrete,                !- Numeric Type
    Percent;                 !- Unit Type


!-   ===========  ALL OBJECTS IN CLASS: SCHEDULE:COMPACT ===========

Schedule:Compact,
    Mac,                     !- Name
    Mac,                     !- Schedule Type Limits Name
    Through: 12/31,          !- Field 1
    For: Weekdays,           !- Field 2
    Until: 9:00,             !- Field 3
     .2,                     !- Field 4
    Until: 18:00,            !- Field 5
     1,                      !- Field 6
    Until: 24:00,            !- Field 7
     .2,                     !- Field 8
    For: Weekends,           !- Field 9
    Until: 24:00,            !- Field 10
     .2,                     !- Field 11
    For: AllOtherDays,       !- Field 12
    Until: 24:00,            !- Field 13
     .2;                     !- Field 14

Schedule:Compact,
    HP,                      !- Name
    HP,                      !- Schedule Type Limits Name
    Through: 12/31,          !- Field 1
    For: Weekdays,           !- Field 2
    Until: 9:00,             !- Field 3
     .02,                    !- Field 4
    Until: 18:00,            !- Field 5
     .4,                     !- Field 6
    Until: 24:00,            !- Field 7
     .02,                    !- Field 8
    For: Weekends,           !- Field 9
    Until: 24:00,            !- Field 10
     .02,                    !- Field 11
    For: AllOtherDays,       !- Field 12
    Until:24:00,             !- Field 13
     .02;                    !- Field 14

Schedule:Compact,
    MonitorDell,             !- Name
    MonitorDell,             !- Schedule Type Limits Name
    Through: 12/31,          !- Field 1
    For: Weekdays,           !- Field 2
    Until: 9:00,             !- Field 3
     .04,                    !- Field 4
    Until: 18:00 ,           !- Field 5
     1,                      !- Field 6
    Until: 24:00 ,           !- Field 7
     .04,                    !- Field 8
    For: Weekends,           !- Field 9
    Until: 24:00,            !- Field 10
     .04,                    !- Field 11
    For: AllOtherDays,       !- Field 12
    Until:24:00,             !- Field 13
     .04;                    !- Field 14

Schedule:Compact,
    Fuente,                  !- Name
    Fuente,                  !- Schedule Type Limits Name
    Through: 12/31,          !- Field 1
    For: Weekdays,           !- Field 2
    Until: 9:00,             !- Field 3
     .17,                    !- Field 4
    Until: 18:00,            !- Field 5
     1,                      !- Field 6
    Until:24:00,             !- Field 7
     .17,                    !- Field 8
    For: Weekends,           !- Field 9
    Until:24:00,             !- Field 10
     .17,                    !- Field 11
    For:AllOtherDays,        !- Field 12
    Until: 24:00,            !- Field 13
     .17;                    !- Field 14

Schedule:Compact,
    Agilent,                 !- Name
    Agilent,                 !- Schedule Type Limits Name
    Through: 12/31,          !- Field 1
    For: Weekdays,           !- Field 2
    Until: 9:00,             !- Field 3
     .2,                     !- Field 4
    Until: 18:00,            !- Field 5
     1,                      !- Field 6
    Until: 24:00,            !- Field 7
     .2,                     !- Field 8
    For: Weekends:,          !- Field 9
    Until: 24:00,            !- Field 10
     .2,                     !- Field 11
    For: AllOtherDays,       !- Field 12
    Until: 24:00,            !- Field 13
     .2;                     !- Field 14

Schedule:Compact,
    Regulador,               !- Name
    Regulador,               !- Schedule Type Limits Name
    Through: 12/31,          !- Field 1
    For: Weekdays,           !- Field 2
    Until: 9:00,             !- Field 3
     .2,                     !- Field 4
    Until: 18:00,            !- Field 5
     1,                      !- Field 6
    Until: 24:00,            !- Field 7
     .2,                     !- Field 8
    For: Weekends,           !- Field 9
    Until: 24:00,            !- Field 10
     .2,                     !- Field 11
    For: AllOtherDays,       !- Field 12
    Until:24:00,             !- Field 13
     .2;                     !- Field 14

Schedule:Compact,
    Telefono,                !- Name
    Telefono,                !- Schedule Type Limits Name
    Through: 12/31,          !- Field 1
    For: Weekdays,           !- Field 2
    Until: 9:00,             !- Field 3
     .2,                     !- Field 4
    Until: 18:00,            !- Field 5
     1,                      !- Field 6
    Until: 24:00,            !- Field 7
     .2,                     !- Field 8
    For: Weekends,           !- Field 9
    Until: 24:00,            !- Field 10
     .2,                     !- Field 11
    For: AllOtherDays,       !- Field 12
    Until: 24:00,            !- Field 13
     .2;                     !- Field 14


!-   ===========  ALL OBJECTS IN CLASS: MATERIAL ===========

Material,
    CAD,                     !- Name
    Rough,                   !- Roughness
    0.1,                     !- Thickness {m}
    2,                       !- Conductivity {W/m-K}
    2400,                    !- Density {kg/m3}
    10000,                   !- Specific Heat {J/kg-K}
    0.9,                     !- Thermal Absorptance
    0.6,                     !- Solar Absorptance
    0.6;                     !- Visible Absorptance

Material,
    MorteroAltaDensidad,     !- Name
    Rough,                   !- Roughness
    0.1,                     !- Thickness {m}
    0.88,                    !- Conductivity {W/m-K}
    2800,                    !- Density {kg/m3}
    896,                     !- Specific Heat {J/kg-K}
    0.9,                     !- Thermal Absorptance
    0.2,                     !- Solar Absorptance
    0.2;                     !- Visible Absorptance

Material,
    Tabique,                 !- Name
    MediumRough,             !- Roughness
    0.14,                    !- Thickness {m}
    0.7,                     !- Conductivity {W/m-K}
    1970,                    !- Density {kg/m3}
    800,                     !- Specific Heat {J/kg-K}
    0.9,                     !- Thermal Absorptance
    0.65,                    !- Solar Absorptance
    0.65;                    !- Visible Absorptance


!-   ===========  ALL OBJECTS IN CLASS: WINDOWMATERIAL:GLAZING ===========

WindowMaterial:Glazing,
    Clear 3mm,               !- Name
    SpectralAverage,         !- Optical Data Type
    ,                        !- Window Glass Spectral Data Set Name
    0.00299999999999999,     !- Thickness {m}
    0.837,                   !- Solar Transmittance at Normal Incidence
    0.075,                   !- Front Side Solar Reflectance at Normal Incidence
    0,                       !- Back Side Solar Reflectance at Normal Incidence
    0.898,                   !- Visible Transmittance at Normal Incidence
    0.081,                   !- Front Side Visible Reflectance at Normal Incidence
    0,                       !- Back Side Visible Reflectance at Normal Incidence
    0,                       !- Infrared Transmittance at Normal Incidence
    0.84,                    !- Front Side Infrared Hemispherical Emissivity
    0.84,                    !- Back Side Infrared Hemispherical Emissivity
    0.9,                     !- Conductivity {W/m-K}
    1,                       !- Dirt Correction Factor for Solar and Visible Transmittance
    No;                      !- Solar Diffusing


!-   ===========  ALL OBJECTS IN CLASS: CONSTRUCTION ===========

Construction,
    CAD,                     !- Name
    CAD;                     !- Outside Layer

Construction,
    MorteroAltaDensidad,     !- Name
    MorteroAltaDensidad;     !- Outside Layer

Construction,
    Tabique,                 !- Name
    Tabique;                 !- Outside Layer

Construction,
    VidrioClaro3mm,          !- Name
    Clear 3mm;               !- Outside Layer


!-   ===========  ALL OBJECTS IN CLASS: GLOBALGEOMETRYRULES ===========

GlobalGeometryRules,
    UpperLeftCorner,         !- Starting Vertex Position
    Counterclockwise,        !- Vertex Entry Direction
    Relative,                !- Coordinate System
    Relative,                !- Daylighting Reference Point Coordinate System
    Relative;                !- Rectangular Surface Coordinate System


!-   ===========  ALL OBJECTS IN CLASS: ZONE ===========

Zone,
    Cubiculo,                !- Name
    ,                        !- Direction of Relative North {deg}
    16.2884710655839,        !- X Origin {m}
    2.37906958727382,        !- Y Origin {m}
    0;                       !- Z Origin {m}

Zone,
    CubiculoTecho,           !- Name
    -0,                      !- Direction of Relative North {deg}
    16.2884710655839,        !- X Origin {m}
    6.13906958727382,        !- Y Origin {m}
    3.6;                     !- Z Origin {m}

Zone,
    Thermal Zone 1,          !- Name
    ,                        !- Direction of Relative North {deg}
    13.6484710655839,        !- X Origin {m}
    2.37906958727382,        !- Y Origin {m}
    0;                       !- Z Origin {m}

Zone,
    Thermal Zone 4,          !- Name
    ,                        !- Direction of Relative North {deg}
    16.2884710655839,        !- X Origin {m}
    2.37906958727382,        !- Y Origin {m}
    0;                       !- Z Origin {m}

Zone,
    Thermal Zone 5,          !- Name
    -0,                      !- Direction of Relative North {deg}
    16.2884710655839,        !- X Origin {m}
    2.37906958727382,        !- Y Origin {m}
    3.6;                     !- Z Origin {m}

Zone,
    Thermal Zone 6,          !- Name
    -0,                      !- Direction of Relative North {deg}
    11.0084710655839,        !- X Origin {m}
    6.13906958727382,        !- Y Origin {m}
    3.6;                     !- Z Origin {m}


!-   ===========  ALL OBJECTS IN CLASS: ZONELIST ===========

ZoneList,
    189.1-2009 - Office - OpenOffice - CZ4-8,  !- Name
    Cubiculo,                !- Zone 1 Name
    CubiculoTecho,           !- Zone 2 Name
    Thermal Zone 1,          !- Zone 3 Name
    Thermal Zone 4,          !- Zone 4 Name
    Thermal Zone 5,          !- Zone 5 Name
    Thermal Zone 6;          !- Zone 6 Name


!-   ===========  ALL OBJECTS IN CLASS: BUILDINGSURFACE:DETAILED ===========

BuildingSurface:Detailed,
    Surface 1,               !- Name
    Floor,                   !- Surface Type
    CAD,                     !- Construction Name
    Cubiculo,                !- Zone Name
    Ground,                  !- Outside Boundary Condition
    ,                        !- Outside Boundary Condition Object
    NoSun,                   !- Sun Exposure
    NoWind,                  !- Wind Exposure
    ,                        !- View Factor to Ground
    ,                        !- Number of Vertices
    2.84,                    !- Vertex 1 X-coordinate {m}
    3.76,                    !- Vertex 1 Y-coordinate {m}
    0,                       !- Vertex 1 Z-coordinate {m}
    2.84,                    !- Vertex 2 X-coordinate {m}
    0,                       !- Vertex 2 Y-coordinate {m}
    0,                       !- Vertex 2 Z-coordinate {m}
    0,                       !- Vertex 3 X-coordinate {m}
    0,                       !- Vertex 3 Y-coordinate {m}
    0,                       !- Vertex 3 Z-coordinate {m}
    0,                       !- Vertex 4 X-coordinate {m}
    3.76,                    !- Vertex 4 Y-coordinate {m}
    0;                       !- Vertex 4 Z-coordinate {m}

BuildingSurface:Detailed,
    Surface 2,               !- Name
    Wall,                    !- Surface Type
    Tabique,                 !- Construction Name
    Cubiculo,                !- Zone Name
    Surface,                 !- Outside Boundary Condition
    Surface 17,              !- Outside Boundary Condition Object
    NoSun,                   !- Sun Exposure
    NoWind,                  !- Wind Exposure
    ,                        !- View Factor to Ground
    ,                        !- Number of Vertices
    0,                       !- Vertex 1 X-coordinate {m}
    3.76,                    !- Vertex 1 Y-coordinate {m}
    3.6,                     !- Vertex 1 Z-coordinate {m}
    0,                       !- Vertex 2 X-coordinate {m}
    3.76,                    !- Vertex 2 Y-coordinate {m}
    0,                       !- Vertex 2 Z-coordinate {m}
    0,                       !- Vertex 3 X-coordinate {m}
    0,                       !- Vertex 3 Y-coordinate {m}
    0,                       !- Vertex 3 Z-coordinate {m}
    0,                       !- Vertex 4 X-coordinate {m}
    0,                       !- Vertex 4 Y-coordinate {m}
    3;                       !- Vertex 4 Z-coordinate {m}

BuildingSurface:Detailed,
    Surface 3,               !- Name
    Wall,                    !- Surface Type
    Tabique,                 !- Construction Name
    Cubiculo,                !- Zone Name
    Outdoors,                !- Outside Boundary Condition
    ,                        !- Outside Boundary Condition Object
    SunExposed,              !- Sun Exposure
    WindExposed,             !- Wind Exposure
    ,                        !- View Factor to Ground
    ,                        !- Number of Vertices
    2.84,                    !- Vertex 1 X-coordinate {m}
    3.76,                    !- Vertex 1 Y-coordinate {m}
    3.6,                     !- Vertex 1 Z-coordinate {m}
    2.84,                    !- Vertex 2 X-coordinate {m}
    3.76,                    !- Vertex 2 Y-coordinate {m}
    0,                       !- Vertex 2 Z-coordinate {m}
    0,                       !- Vertex 3 X-coordinate {m}
    3.76,                    !- Vertex 3 Y-coordinate {m}
    0,                       !- Vertex 3 Z-coordinate {m}
    0,                       !- Vertex 4 X-coordinate {m}
    3.76,                    !- Vertex 4 Y-coordinate {m}
    3.6;                     !- Vertex 4 Z-coordinate {m}

BuildingSurface:Detailed,
    Surface 4,               !- Name
    Wall,                    !- Surface Type
    Tabique,                 !- Construction Name
    Cubiculo,                !- Zone Name
    Outdoors,                !- Outside Boundary Condition
    ,                        !- Outside Boundary Condition Object
    SunExposed,              !- Sun Exposure
    WindExposed,             !- Wind Exposure
    ,                        !- View Factor to Ground
    ,                        !- Number of Vertices
    2.84,                    !- Vertex 1 X-coordinate {m}
    3.76,                    !- Vertex 1 Y-coordinate {m}
    3.6,                     !- Vertex 1 Z-coordinate {m}
    2.84,                    !- Vertex 2 X-coordinate {m}
    0,                       !- Vertex 2 Y-coordinate {m}
    3,                       !- Vertex 2 Z-coordinate {m}
    2.84,                    !- Vertex 3 X-coordinate {m}
    0,                       !- Vertex 3 Y-coordinate {m}
    0,                       !- Vertex 3 Z-coordinate {m}
    2.84,                    !- Vertex 4 X-coordinate {m}
    3.76,                    !- Vertex 4 Y-coordinate {m}
    0;                       !- Vertex 4 Z-coordinate {m}

BuildingSurface:Detailed,
    Surface 5,               !- Name
    Wall,                    !- Surface Type
    Tabique,                 !- Construction Name
    Cubiculo,                !- Zone Name
    Outdoors,                !- Outside Boundary Condition
    ,                        !- Outside Boundary Condition Object
    SunExposed,              !- Sun Exposure
    WindExposed,             !- Wind Exposure
    ,                        !- View Factor to Ground
    ,                        !- Number of Vertices
    0,                       !- Vertex 1 X-coordinate {m}
    0,                       !- Vertex 1 Y-coordinate {m}
    3,                       !- Vertex 1 Z-coordinate {m}
    0,                       !- Vertex 2 X-coordinate {m}
    0,                       !- Vertex 2 Y-coordinate {m}
    0,                       !- Vertex 2 Z-coordinate {m}
    2.84,                    !- Vertex 3 X-coordinate {m}
    0,                       !- Vertex 3 Y-coordinate {m}
    0,                       !- Vertex 3 Z-coordinate {m}
    2.84,                    !- Vertex 4 X-coordinate {m}
    0,                       !- Vertex 4 Y-coordinate {m}
    3;                       !- Vertex 4 Z-coordinate {m}

BuildingSurface:Detailed,
    Surface 6,               !- Name
    Ceiling,                 !- Surface Type
    CAD,                     !- Construction Name
    Cubiculo,                !- Zone Name
    Surface,                 !- Outside Boundary Condition
    Surface 38,              !- Outside Boundary Condition Object
    NoSun,                   !- Sun Exposure
    NoWind,                  !- Wind Exposure
    ,                        !- View Factor to Ground
    ,                        !- Number of Vertices
    0,                       !- Vertex 1 X-coordinate {m}
    3.76,                    !- Vertex 1 Y-coordinate {m}
    3.6,                     !- Vertex 1 Z-coordinate {m}
    0,                       !- Vertex 2 X-coordinate {m}
    0,                       !- Vertex 2 Y-coordinate {m}
    3,                       !- Vertex 2 Z-coordinate {m}
    2.84,                    !- Vertex 3 X-coordinate {m}
    0,                       !- Vertex 3 Y-coordinate {m}
    3,                       !- Vertex 3 Z-coordinate {m}
    2.84,                    !- Vertex 4 X-coordinate {m}
    3.76,                    !- Vertex 4 Y-coordinate {m}
    3.6;                     !- Vertex 4 Z-coordinate {m}

BuildingSurface:Detailed,
    Surface 10,              !- Name
    Wall,                    !- Surface Type
    MorteroAltaDensidad,     !- Construction Name
    CubiculoTecho,           !- Zone Name
    Outdoors,                !- Outside Boundary Condition
    ,                        !- Outside Boundary Condition Object
    SunExposed,              !- Sun Exposure
    WindExposed,             !- Wind Exposure
    ,                        !- View Factor to Ground
    ,                        !- Number of Vertices
    0,                       !- Vertex 1 X-coordinate {m}
    -5.87356023680904,       !- Vertex 1 Y-coordinate {m}
    -0.633474659773899,      !- Vertex 1 Z-coordinate {m}
    0,                       !- Vertex 2 X-coordinate {m}
    -5.8262860084677,        !- Vertex 2 Y-coordinate {m}
    -0.929726490712935,      !- Vertex 2 Z-coordinate {m}
    2.84,                    !- Vertex 3 X-coordinate {m}
    -5.8262860084677,        !- Vertex 3 Y-coordinate {m}
    -0.929726490712935,      !- Vertex 3 Z-coordinate {m}
    2.84,                    !- Vertex 4 X-coordinate {m}
    -5.87356023680904,       !- Vertex 4 Y-coordinate {m}
    -0.633474659773899;      !- Vertex 4 Z-coordinate {m}

BuildingSurface:Detailed,
    Surface 11,              !- Name
    Wall,                    !- Surface Type
    MorteroAltaDensidad,     !- Construction Name
    CubiculoTecho,           !- Zone Name
    Surface,                 !- Outside Boundary Condition
    Surface 23,              !- Outside Boundary Condition Object
    NoSun,                   !- Sun Exposure
    NoWind,                  !- Wind Exposure
    ,                        !- View Factor to Ground
    ,                        !- Number of Vertices
    0,                       !- Vertex 1 X-coordinate {m}
    0.643980043849753,       !- Vertex 1 Y-coordinate {m}
    0.406558363735478,       !- Vertex 1 Z-coordinate {m}
    0,                       !- Vertex 2 X-coordinate {m}
    0.691254272191099,       !- Vertex 2 Y-coordinate {m}
    0.110306532796445,       !- Vertex 2 Z-coordinate {m}
    0,                       !- Vertex 3 X-coordinate {m}
    -5.8262860084677,        !- Vertex 3 Y-coordinate {m}
    -0.929726490712935,      !- Vertex 3 Z-coordinate {m}
    0,                       !- Vertex 4 X-coordinate {m}
    -5.87356023680904,       !- Vertex 4 Y-coordinate {m}
    -0.633474659773899;      !- Vertex 4 Z-coordinate {m}

BuildingSurface:Detailed,
    Surface 12,              !- Name
    Roof,                    !- Surface Type
    MorteroAltaDensidad,     !- Construction Name
    CubiculoTecho,           !- Zone Name
    Outdoors,                !- Outside Boundary Condition
    ,                        !- Outside Boundary Condition Object
    SunExposed,              !- Sun Exposure
    WindExposed,             !- Wind Exposure
    ,                        !- View Factor to Ground
    ,                        !- Number of Vertices
    0,                       !- Vertex 1 X-coordinate {m}
    0.643980043849753,       !- Vertex 1 Y-coordinate {m}
    0.406558363735478,       !- Vertex 1 Z-coordinate {m}
    0,                       !- Vertex 2 X-coordinate {m}
    -5.87356023680904,       !- Vertex 2 Y-coordinate {m}
    -0.633474659773899,      !- Vertex 2 Z-coordinate {m}
    2.84,                    !- Vertex 3 X-coordinate {m}
    -5.87356023680904,       !- Vertex 3 Y-coordinate {m}
    -0.633474659773899,      !- Vertex 3 Z-coordinate {m}
    2.84,                    !- Vertex 4 X-coordinate {m}
    0.643980043849753,       !- Vertex 4 Y-coordinate {m}
    0.406558363735478;       !- Vertex 4 Z-coordinate {m}

BuildingSurface:Detailed,
    Surface 37,              !- Name
    Floor,                   !- Surface Type
    MorteroAltaDensidad,     !- Construction Name
    CubiculoTecho,           !- Zone Name
    Outdoors,                !- Outside Boundary Condition
    ,                        !- Outside Boundary Condition Object
    SunExposed,              !- Sun Exposure
    WindExposed,             !- Wind Exposure
    ,                        !- View Factor to Ground
    ,                        !- Number of Vertices
    2.84,                    !- Vertex 1 X-coordinate {m}
    0.691254272191099,       !- Vertex 1 Y-coordinate {m}
    0.110306532796444,       !- Vertex 1 Z-coordinate {m}
    2.84,                    !- Vertex 2 X-coordinate {m}
    1.42622480146457e-014,   !- Vertex 2 Y-coordinate {m}
    -2.50674674139746e-015,  !- Vertex 2 Z-coordinate {m}
    -8.46944029798595e-031,  !- Vertex 3 X-coordinate {m}
    1.71704131784969e-016,   !- Vertex 3 Y-coordinate {m}
    -2.51983539825036e-015,  !- Vertex 3 Z-coordinate {m}
    8.50457922036746e-031,   !- Vertex 4 X-coordinate {m}
    0.691254272191099,       !- Vertex 4 Y-coordinate {m}
    0.110306532796446;       !- Vertex 4 Z-coordinate {m}

BuildingSurface:Detailed,
    Surface 38,              !- Name
    Floor,                   !- Surface Type
    CAD,                     !- Construction Name
    CubiculoTecho,           !- Zone Name
    Surface,                 !- Outside Boundary Condition
    Surface 6,               !- Outside Boundary Condition Object
    NoSun,                   !- Sun Exposure
    NoWind,                  !- Wind Exposure
    ,                        !- View Factor to Ground
    ,                        !- Number of Vertices
    -2.25140085038001e-030,  !- Vertex 1 X-coordinate {m}
    2.77288417974636e-016,   !- Vertex 1 Y-coordinate {m}
    -1.73767408597438e-015,  !- Vertex 1 Z-coordinate {m}
    2.84,                    !- Vertex 2 X-coordinate {m}
    1.41820036321952e-014,   !- Vertex 2 Y-coordinate {m}